<?xml version="1.0" encoding="UTF-8"?>

<!-- generated on Thu Apr 15 11:26:32 2021 by Eclipse SUMO netedit Version 1.6.0
<configuration xmlns:xsi="http://www.w3.org/2001/XMLSchema-instance" xsi:noNamespaceSchemaLocation="http://sumo.dlr.de/xsd/netconvertConfiguration.xsd">

    <input>
        <sumo-net-file value="/home/buse/git/buse2021async/scenario/motorway/motorway.net.xml"/>
    </input>

    <output>
        <output-file value="/home/buse/git/buse2021async/scenario/motorway/motorway.net.xml"/>
    </output>

    <processing>
        <geometry.min-radius.fix.railways value="false"/>
        <geometry.max-grade.fix value="false"/>
        <offset.disable-normalization value="true"/>
        <lefthand value="false"/>
    </processing>

    <junctions>
        <no-turnarounds value="true"/>
        <junctions.corner-detail value="5"/>
        <junctions.limit-turn-speed value="5.5"/>
        <rectangular-lane-cut value="false"/>
    </junctions>

    <pedestrian>
        <walkingareas value="false"/>
    </pedestrian>

    <report>
        <aggregate-warnings value="5"/>
    </report>

</configuration>
-->

<net version="1.6" junctionCornerDetail="5" limitTurnSpeed="5.50" xmlns:xsi="http://www.w3.org/2001/XMLSchema-instance" xsi:noNamespaceSchemaLocation="http://sumo.dlr.de/xsd/net_file.xsd">

    <location netOffset="0.00,0.00" convBoundary="0.00,50.00,5000.00,100.00" origBoundary="-10000000000.00,-10000000000.00,10000000000.00,10000000000.00" projParameter="!"/>

    <edge id=":gneJ11_0" function="internal">
        <lane id=":gneJ11_0_0" index="0" speed="33.33" length="0.10" shape="4700.00,108.00 4700.00,108.00"/>
        <lane id=":gneJ11_0_1" index="1" speed="33.33" length="0.10" shape="4700.00,104.80 4700.00,104.80"/>
        <lane id=":gneJ11_0_2" index="2" speed="33.33" length="0.10" shape="4700.00,101.60 4700.00,101.60"/>
    </edge>
    <edge id=":gneJ2_0" function="internal">
        <lane id=":gneJ2_0_0" index="0" speed="33.33" length="0.10" shape="300.00,42.00 300.00,42.00"/>
        <lane id=":gneJ2_0_1" index="1" speed="33.33" length="0.10" shape="300.00,45.20 300.00,45.20"/>
        <lane id=":gneJ2_0_2" index="2" speed="33.33" length="0.10" shape="300.00,48.40 300.00,48.40"/>
    </edge>

    <edge id="freeway" from="gneJ2" to="gneJ3" priority="-1">
        <lane id="freeway_0" index="0" speed="33.33" length="4700.00" shape="300.00,42.00 5000.00,42.00"/>
        <lane id="freeway_1" index="1" speed="33.33" length="4700.00" shape="300.00,45.20 5000.00,45.20"/>
        <lane id="freeway_2" index="2" speed="33.33" length="4700.00" shape="300.00,48.40 5000.00,48.40"/>
    </edge>
    <edge id="freewayR" from="gneJ11" to="gneJ13" priority="-1">
        <lane id="freewayR_0" index="0" speed="33.33" length="4700.00" shape="4700.00,108.00 0.00,108.00"/>
        <lane id="freewayR_1" index="1" speed="33.33" length="4700.00" shape="4700.00,104.80 0.00,104.80"/>
        <lane id="freewayR_2" index="2" speed="33.33" length="4700.00" shape="4700.00,101.60 0.00,101.60"/>
    </edge>
    <edge id="intermediate" from="gneJ1" to="gneJ2" priority="-1">
        <lane id="intermediate_0" index="0" speed="33.33" length="300.00" acceleration="1" shape="0.00,42.00 300.00,42.00"/>
        <lane id="intermediate_1" index="1" speed="33.33" length="300.00" acceleration="1" shape="0.00,45.20 300.00,45.20"/>
        <lane id="intermediate_2" index="2" speed="33.33" length="300.00" shape="0.00,48.40 300.00,48.40"/>
    </edge>
    <edge id="intermediateR" from="gneJ10" to="gneJ11" priority="-1">
        <lane id="intermediateR_0" index="0" speed="33.33" length="300.00" acceleration="1" shape="5000.00,108.00 4700.00,108.00"/>
        <lane id="intermediateR_1" index="1" speed="33.33" length="300.00" acceleration="1" shape="5000.00,104.80 4700.00,104.80"/>
        <lane id="intermediateR_2" index="2" speed="33.33" length="300.00" shape="5000.00,101.60 4700.00,101.60"/>
    </edge>

    <junction id="gneJ1" type="dead_end" x="0.00" y="50.00" incLanes="" intLanes="" shape="0.00,50.00 0.00,40.40"/>
    <junction id="gneJ10" type="dead_end" x="5000.00" y="100.00" incLanes="" intLanes="" shape="5000.00,100.00 5000.00,109.60"/>
    <junction id="gneJ11" type="priority" x="4700.00" y="100.00" incLanes="intermediateR_0 intermediateR_1 intermediateR_2" intLanes=":gneJ11_0_0 :gneJ11_0_1 :gneJ11_0_2" shape="4700.00,109.60 4700.00,100.00 4700.00,109.60">
        <request index="0" response="000" foes="000" cont="0"/>
        <request index="1" response="000" foes="000" cont="0"/>
        <request index="2" response="000" foes="000" cont="0"/>
    </junction>
    <junction id="gneJ13" type="dead_end" x="0.00" y="100.00" incLanes="freewayR_0 freewayR_1 freewayR_2" intLanes="" shape="0.00,109.60 0.00,100.00"/>
    <junction id="gneJ2" type="priority" x="300.00" y="50.00" incLanes="intermediate_0 intermediate_1 intermediate_2" intLanes=":gneJ2_0_0 :gneJ2_0_1 :gneJ2_0_2" shape="300.00,50.00 300.00,40.40 300.00,50.00">
        <request index="0" response="000" foes="000" cont="0"/>
        <request index="1" response="000" foes="000" cont="0"/>
        <request index="2" response="000" foes="000" cont="0"/>
    </junction>
    <junction id="gneJ3" type="dead_end" x="5000.00" y="50.00" incLanes="freeway_0 freeway_1 freeway_2" intLanes="" shape="5000.00,40.40 5000.00,50.00"/>

    <connection from="intermediate" to="freeway" fromLane="0" toLane="0" via=":gneJ2_0_0" dir="s" state="M"/>
    <connection from="intermediate" to="freeway" fromLane="1" toLane="1" via=":gneJ2_0_1" dir="s" state="M"/>
    <connection from="intermediate" to="freeway" fromLane="2" toLane="2" via=":gneJ2_0_2" dir="s" state="M"/>
    <connection from="intermediateR" to="freewayR" fromLane="0" toLane="0" via=":gneJ11_0_0" dir="s" state="M"/>
    <connection from="intermediateR" to="freewayR" fromLane="1" toLane="1" via=":gneJ11_0_1" dir="s" state="M"/>
    <connection from="intermediateR" to="freewayR" fromLane="2" toLane="2" via=":gneJ11_0_2" dir="s" state="M"/>

    <connection from=":gneJ11_0" to="freewayR" fromLane="0" toLane="0" dir="s" state="M"/>
    <connection from=":gneJ11_0" to="freewayR" fromLane="1" toLane="1" dir="s" state="M"/>
    <connection from=":gneJ11_0" to="freewayR" fromLane="2" toLane="2" dir="s" state="M"/>
    <connection from=":gneJ2_0" to="freeway" fromLane="0" toLane="0" dir="s" state="M"/>
    <connection from=":gneJ2_0" to="freeway" fromLane="1" toLane="1" dir="s" state="M"/>
    <connection from=":gneJ2_0" to="freeway" fromLane="2" toLane="2" dir="s" state="M"/>

</net>
